// Generated for: spectre
// Generated on: Jan 16 08:12:56 2017
// Design library name: adc_sampler_2
// Design cell name: tran_test
// Design view name: schematic
simulator lang=spectre
global 0
